** Cell name: sram_64x4
.subckt sram_64x4 vdd gnd wl[0] wl[1] wl[2] wl[3] wl[4] wl[5] wl[6] wl[7] wl[8] wl[9] wl[10] wl[11] wl[12] wl[13] wl[14] wl[15] wl[16] wl[17] wl[18] wl[19] wl[20] wl[21] wl[22] wl[23] wl[24] wl[25] wl[26] wl[27] wl[28] wl[29] wl[30] wl[31] wl[32] wl[33] wl[34] wl[35] wl[36] wl[37] wl[38] wl[39] wl[40] wl[41] wl[42] wl[43] wl[44] wl[45] wl[46] wl[47] wl[48] wl[49] wl[50] wl[51] wl[52] wl[53] wl[54] wl[55] wl[56] wl[57] wl[58] wl[59] wl[60] wl[61] wl[62] wl[63] in_b[0] in_b[1] in_b[2] in_b[3] in_b[4] in_b[5] in_b[6] in_b[7] in_b[8] in_b[9] in_b[10] in_b[11] in_b[12] in_b[13] in_b[14] in_b[15] in_b[16] in_b[17] in_b[18] in_b[19] in_b[20] in_b[21] in_b[22] in_b[23] in_b[24] in_b[25] in_b[26] in_b[27] in_b[28] in_b[29] in_b[30] in_b[31] in_b[32] in_b[33] in_b[34] in_b[35] in_b[36] in_b[37] in_b[38] in_b[39] in_b[40] in_b[41] in_b[42] in_b[43] in_b[44] in_b[45] in_b[46] in_b[47] in_b[48] in_b[49] in_b[50] in_b[51] in_b[52] in_b[53] in_b[54] in_b[55] in_b[56] in_b[57] in_b[58] in_b[59] in_b[60] in_b[61] in_b[62] in_b[63] bl[0] bl[1] bl[2] bl[3] bl_b[0] bl_b[1] bl_b[2] bl_b[3] bitcell_out_0[0] bitcell_out_0[1] bitcell_out_0[2] bitcell_out_0[3] bitcell_out_1[0] bitcell_out_1[1] bitcell_out_1[2] bitcell_out_1[3] bitcell_out_2[0] bitcell_out_2[1] bitcell_out_2[2] bitcell_out_2[3] bitcell_out_3[0] bitcell_out_3[1] bitcell_out_3[2] bitcell_out_3[3] bitcell_out_4[0] bitcell_out_4[1] bitcell_out_4[2] bitcell_out_4[3] bitcell_out_5[0] bitcell_out_5[1] bitcell_out_5[2] bitcell_out_5[3] bitcell_out_6[0] bitcell_out_6[1] bitcell_out_6[2] bitcell_out_6[3] bitcell_out_7[0] bitcell_out_7[1] bitcell_out_7[2] bitcell_out_7[3] bitcell_out_8[0] bitcell_out_8[1] bitcell_out_8[2] bitcell_out_8[3] bitcell_out_9[0] bitcell_out_9[1] bitcell_out_9[2] bitcell_out_9[3] bitcell_out_10[0] bitcell_out_10[1] bitcell_out_10[2] bitcell_out_10[3] bitcell_out_11[0] bitcell_out_11[1] bitcell_out_11[2] bitcell_out_11[3] bitcell_out_12[0] bitcell_out_12[1] bitcell_out_12[2] bitcell_out_12[3] bitcell_out_13[0] bitcell_out_13[1] bitcell_out_13[2] bitcell_out_13[3] bitcell_out_14[0] bitcell_out_14[1] bitcell_out_14[2] bitcell_out_14[3] bitcell_out_15[0] bitcell_out_15[1] bitcell_out_15[2] bitcell_out_15[3] bitcell_out_16[0] bitcell_out_16[1] bitcell_out_16[2] bitcell_out_16[3] bitcell_out_17[0] bitcell_out_17[1] bitcell_out_17[2] bitcell_out_17[3] bitcell_out_18[0] bitcell_out_18[1] bitcell_out_18[2] bitcell_out_18[3] bitcell_out_19[0] bitcell_out_19[1] bitcell_out_19[2] bitcell_out_19[3] bitcell_out_20[0] bitcell_out_20[1] bitcell_out_20[2] bitcell_out_20[3] bitcell_out_21[0] bitcell_out_21[1] bitcell_out_21[2] bitcell_out_21[3] bitcell_out_22[0] bitcell_out_22[1] bitcell_out_22[2] bitcell_out_22[3] bitcell_out_23[0] bitcell_out_23[1] bitcell_out_23[2] bitcell_out_23[3] bitcell_out_24[0] bitcell_out_24[1] bitcell_out_24[2] bitcell_out_24[3] bitcell_out_25[0] bitcell_out_25[1] bitcell_out_25[2] bitcell_out_25[3] bitcell_out_26[0] bitcell_out_26[1] bitcell_out_26[2] bitcell_out_26[3] bitcell_out_27[0] bitcell_out_27[1] bitcell_out_27[2] bitcell_out_27[3] bitcell_out_28[0] bitcell_out_28[1] bitcell_out_28[2] bitcell_out_28[3] bitcell_out_29[0] bitcell_out_29[1] bitcell_out_29[2] bitcell_out_29[3] bitcell_out_30[0] bitcell_out_30[1] bitcell_out_30[2] bitcell_out_30[3] bitcell_out_31[0] bitcell_out_31[1] bitcell_out_31[2] bitcell_out_31[3] bitcell_out_32[0] bitcell_out_32[1] bitcell_out_32[2] bitcell_out_32[3] bitcell_out_33[0] bitcell_out_33[1] bitcell_out_33[2] bitcell_out_33[3] bitcell_out_34[0] bitcell_out_34[1] bitcell_out_34[2] bitcell_out_34[3] bitcell_out_35[0] bitcell_out_35[1] bitcell_out_35[2] bitcell_out_35[3] bitcell_out_36[0] bitcell_out_36[1] bitcell_out_36[2] bitcell_out_36[3] bitcell_out_37[0] bitcell_out_37[1] bitcell_out_37[2] bitcell_out_37[3] bitcell_out_38[0] bitcell_out_38[1] bitcell_out_38[2] bitcell_out_38[3] bitcell_out_39[0] bitcell_out_39[1] bitcell_out_39[2] bitcell_out_39[3] bitcell_out_40[0] bitcell_out_40[1] bitcell_out_40[2] bitcell_out_40[3] bitcell_out_41[0] bitcell_out_41[1] bitcell_out_41[2] bitcell_out_41[3] bitcell_out_42[0] bitcell_out_42[1] bitcell_out_42[2] bitcell_out_42[3] bitcell_out_43[0] bitcell_out_43[1] bitcell_out_43[2] bitcell_out_43[3] bitcell_out_44[0] bitcell_out_44[1] bitcell_out_44[2] bitcell_out_44[3] bitcell_out_45[0] bitcell_out_45[1] bitcell_out_45[2] bitcell_out_45[3] bitcell_out_46[0] bitcell_out_46[1] bitcell_out_46[2] bitcell_out_46[3] bitcell_out_47[0] bitcell_out_47[1] bitcell_out_47[2] bitcell_out_47[3] bitcell_out_48[0] bitcell_out_48[1] bitcell_out_48[2] bitcell_out_48[3] bitcell_out_49[0] bitcell_out_49[1] bitcell_out_49[2] bitcell_out_49[3] bitcell_out_50[0] bitcell_out_50[1] bitcell_out_50[2] bitcell_out_50[3] bitcell_out_51[0] bitcell_out_51[1] bitcell_out_51[2] bitcell_out_51[3] bitcell_out_52[0] bitcell_out_52[1] bitcell_out_52[2] bitcell_out_52[3] bitcell_out_53[0] bitcell_out_53[1] bitcell_out_53[2] bitcell_out_53[3] bitcell_out_54[0] bitcell_out_54[1] bitcell_out_54[2] bitcell_out_54[3] bitcell_out_55[0] bitcell_out_55[1] bitcell_out_55[2] bitcell_out_55[3] bitcell_out_56[0] bitcell_out_56[1] bitcell_out_56[2] bitcell_out_56[3] bitcell_out_57[0] bitcell_out_57[1] bitcell_out_57[2] bitcell_out_57[3] bitcell_out_58[0] bitcell_out_58[1] bitcell_out_58[2] bitcell_out_58[3] bitcell_out_59[0] bitcell_out_59[1] bitcell_out_59[2] bitcell_out_59[3] bitcell_out_60[0] bitcell_out_60[1] bitcell_out_60[2] bitcell_out_60[3] bitcell_out_61[0] bitcell_out_61[1] bitcell_out_61[2] bitcell_out_61[3] bitcell_out_62[0] bitcell_out_62[1] bitcell_out_62[2] bitcell_out_62[3] bitcell_out_63[0] bitcell_out_63[1] bitcell_out_63[2] bitcell_out_63[3] 
xi_bitcell_0_0 vdd gnd wl[0] in_b[0] bl[0] bl_b[0] bitcell_out_0[0] dcim_bitcell
xi_bitcell_0_1 vdd gnd wl[0] in_b[0] bl[1] bl_b[1] bitcell_out_0[1] dcim_bitcell
xi_bitcell_0_2 vdd gnd wl[0] in_b[0] bl[2] bl_b[2] bitcell_out_0[2] dcim_bitcell
xi_bitcell_0_3 vdd gnd wl[0] in_b[0] bl[3] bl_b[3] bitcell_out_0[3] dcim_bitcell
xi_bitcell_1_0 vdd gnd wl[1] in_b[1] bl[0] bl_b[0] bitcell_out_1[0] dcim_bitcell
xi_bitcell_1_1 vdd gnd wl[1] in_b[1] bl[1] bl_b[1] bitcell_out_1[1] dcim_bitcell
xi_bitcell_1_2 vdd gnd wl[1] in_b[1] bl[2] bl_b[2] bitcell_out_1[2] dcim_bitcell
xi_bitcell_1_3 vdd gnd wl[1] in_b[1] bl[3] bl_b[3] bitcell_out_1[3] dcim_bitcell
xi_bitcell_2_0 vdd gnd wl[2] in_b[2] bl[0] bl_b[0] bitcell_out_2[0] dcim_bitcell
xi_bitcell_2_1 vdd gnd wl[2] in_b[2] bl[1] bl_b[1] bitcell_out_2[1] dcim_bitcell
xi_bitcell_2_2 vdd gnd wl[2] in_b[2] bl[2] bl_b[2] bitcell_out_2[2] dcim_bitcell
xi_bitcell_2_3 vdd gnd wl[2] in_b[2] bl[3] bl_b[3] bitcell_out_2[3] dcim_bitcell
xi_bitcell_3_0 vdd gnd wl[3] in_b[3] bl[0] bl_b[0] bitcell_out_3[0] dcim_bitcell
xi_bitcell_3_1 vdd gnd wl[3] in_b[3] bl[1] bl_b[1] bitcell_out_3[1] dcim_bitcell
xi_bitcell_3_2 vdd gnd wl[3] in_b[3] bl[2] bl_b[2] bitcell_out_3[2] dcim_bitcell
xi_bitcell_3_3 vdd gnd wl[3] in_b[3] bl[3] bl_b[3] bitcell_out_3[3] dcim_bitcell
xi_bitcell_4_0 vdd gnd wl[4] in_b[4] bl[0] bl_b[0] bitcell_out_4[0] dcim_bitcell
xi_bitcell_4_1 vdd gnd wl[4] in_b[4] bl[1] bl_b[1] bitcell_out_4[1] dcim_bitcell
xi_bitcell_4_2 vdd gnd wl[4] in_b[4] bl[2] bl_b[2] bitcell_out_4[2] dcim_bitcell
xi_bitcell_4_3 vdd gnd wl[4] in_b[4] bl[3] bl_b[3] bitcell_out_4[3] dcim_bitcell
xi_bitcell_5_0 vdd gnd wl[5] in_b[5] bl[0] bl_b[0] bitcell_out_5[0] dcim_bitcell
xi_bitcell_5_1 vdd gnd wl[5] in_b[5] bl[1] bl_b[1] bitcell_out_5[1] dcim_bitcell
xi_bitcell_5_2 vdd gnd wl[5] in_b[5] bl[2] bl_b[2] bitcell_out_5[2] dcim_bitcell
xi_bitcell_5_3 vdd gnd wl[5] in_b[5] bl[3] bl_b[3] bitcell_out_5[3] dcim_bitcell
xi_bitcell_6_0 vdd gnd wl[6] in_b[6] bl[0] bl_b[0] bitcell_out_6[0] dcim_bitcell
xi_bitcell_6_1 vdd gnd wl[6] in_b[6] bl[1] bl_b[1] bitcell_out_6[1] dcim_bitcell
xi_bitcell_6_2 vdd gnd wl[6] in_b[6] bl[2] bl_b[2] bitcell_out_6[2] dcim_bitcell
xi_bitcell_6_3 vdd gnd wl[6] in_b[6] bl[3] bl_b[3] bitcell_out_6[3] dcim_bitcell
xi_bitcell_7_0 vdd gnd wl[7] in_b[7] bl[0] bl_b[0] bitcell_out_7[0] dcim_bitcell
xi_bitcell_7_1 vdd gnd wl[7] in_b[7] bl[1] bl_b[1] bitcell_out_7[1] dcim_bitcell
xi_bitcell_7_2 vdd gnd wl[7] in_b[7] bl[2] bl_b[2] bitcell_out_7[2] dcim_bitcell
xi_bitcell_7_3 vdd gnd wl[7] in_b[7] bl[3] bl_b[3] bitcell_out_7[3] dcim_bitcell
xi_bitcell_8_0 vdd gnd wl[8] in_b[8] bl[0] bl_b[0] bitcell_out_8[0] dcim_bitcell
xi_bitcell_8_1 vdd gnd wl[8] in_b[8] bl[1] bl_b[1] bitcell_out_8[1] dcim_bitcell
xi_bitcell_8_2 vdd gnd wl[8] in_b[8] bl[2] bl_b[2] bitcell_out_8[2] dcim_bitcell
xi_bitcell_8_3 vdd gnd wl[8] in_b[8] bl[3] bl_b[3] bitcell_out_8[3] dcim_bitcell
xi_bitcell_9_0 vdd gnd wl[9] in_b[9] bl[0] bl_b[0] bitcell_out_9[0] dcim_bitcell
xi_bitcell_9_1 vdd gnd wl[9] in_b[9] bl[1] bl_b[1] bitcell_out_9[1] dcim_bitcell
xi_bitcell_9_2 vdd gnd wl[9] in_b[9] bl[2] bl_b[2] bitcell_out_9[2] dcim_bitcell
xi_bitcell_9_3 vdd gnd wl[9] in_b[9] bl[3] bl_b[3] bitcell_out_9[3] dcim_bitcell
xi_bitcell_10_0 vdd gnd wl[10] in_b[10] bl[0] bl_b[0] bitcell_out_10[0] dcim_bitcell
xi_bitcell_10_1 vdd gnd wl[10] in_b[10] bl[1] bl_b[1] bitcell_out_10[1] dcim_bitcell
xi_bitcell_10_2 vdd gnd wl[10] in_b[10] bl[2] bl_b[2] bitcell_out_10[2] dcim_bitcell
xi_bitcell_10_3 vdd gnd wl[10] in_b[10] bl[3] bl_b[3] bitcell_out_10[3] dcim_bitcell
xi_bitcell_11_0 vdd gnd wl[11] in_b[11] bl[0] bl_b[0] bitcell_out_11[0] dcim_bitcell
xi_bitcell_11_1 vdd gnd wl[11] in_b[11] bl[1] bl_b[1] bitcell_out_11[1] dcim_bitcell
xi_bitcell_11_2 vdd gnd wl[11] in_b[11] bl[2] bl_b[2] bitcell_out_11[2] dcim_bitcell
xi_bitcell_11_3 vdd gnd wl[11] in_b[11] bl[3] bl_b[3] bitcell_out_11[3] dcim_bitcell
xi_bitcell_12_0 vdd gnd wl[12] in_b[12] bl[0] bl_b[0] bitcell_out_12[0] dcim_bitcell
xi_bitcell_12_1 vdd gnd wl[12] in_b[12] bl[1] bl_b[1] bitcell_out_12[1] dcim_bitcell
xi_bitcell_12_2 vdd gnd wl[12] in_b[12] bl[2] bl_b[2] bitcell_out_12[2] dcim_bitcell
xi_bitcell_12_3 vdd gnd wl[12] in_b[12] bl[3] bl_b[3] bitcell_out_12[3] dcim_bitcell
xi_bitcell_13_0 vdd gnd wl[13] in_b[13] bl[0] bl_b[0] bitcell_out_13[0] dcim_bitcell
xi_bitcell_13_1 vdd gnd wl[13] in_b[13] bl[1] bl_b[1] bitcell_out_13[1] dcim_bitcell
xi_bitcell_13_2 vdd gnd wl[13] in_b[13] bl[2] bl_b[2] bitcell_out_13[2] dcim_bitcell
xi_bitcell_13_3 vdd gnd wl[13] in_b[13] bl[3] bl_b[3] bitcell_out_13[3] dcim_bitcell
xi_bitcell_14_0 vdd gnd wl[14] in_b[14] bl[0] bl_b[0] bitcell_out_14[0] dcim_bitcell
xi_bitcell_14_1 vdd gnd wl[14] in_b[14] bl[1] bl_b[1] bitcell_out_14[1] dcim_bitcell
xi_bitcell_14_2 vdd gnd wl[14] in_b[14] bl[2] bl_b[2] bitcell_out_14[2] dcim_bitcell
xi_bitcell_14_3 vdd gnd wl[14] in_b[14] bl[3] bl_b[3] bitcell_out_14[3] dcim_bitcell
xi_bitcell_15_0 vdd gnd wl[15] in_b[15] bl[0] bl_b[0] bitcell_out_15[0] dcim_bitcell
xi_bitcell_15_1 vdd gnd wl[15] in_b[15] bl[1] bl_b[1] bitcell_out_15[1] dcim_bitcell
xi_bitcell_15_2 vdd gnd wl[15] in_b[15] bl[2] bl_b[2] bitcell_out_15[2] dcim_bitcell
xi_bitcell_15_3 vdd gnd wl[15] in_b[15] bl[3] bl_b[3] bitcell_out_15[3] dcim_bitcell
xi_bitcell_16_0 vdd gnd wl[16] in_b[16] bl[0] bl_b[0] bitcell_out_16[0] dcim_bitcell
xi_bitcell_16_1 vdd gnd wl[16] in_b[16] bl[1] bl_b[1] bitcell_out_16[1] dcim_bitcell
xi_bitcell_16_2 vdd gnd wl[16] in_b[16] bl[2] bl_b[2] bitcell_out_16[2] dcim_bitcell
xi_bitcell_16_3 vdd gnd wl[16] in_b[16] bl[3] bl_b[3] bitcell_out_16[3] dcim_bitcell
xi_bitcell_17_0 vdd gnd wl[17] in_b[17] bl[0] bl_b[0] bitcell_out_17[0] dcim_bitcell
xi_bitcell_17_1 vdd gnd wl[17] in_b[17] bl[1] bl_b[1] bitcell_out_17[1] dcim_bitcell
xi_bitcell_17_2 vdd gnd wl[17] in_b[17] bl[2] bl_b[2] bitcell_out_17[2] dcim_bitcell
xi_bitcell_17_3 vdd gnd wl[17] in_b[17] bl[3] bl_b[3] bitcell_out_17[3] dcim_bitcell
xi_bitcell_18_0 vdd gnd wl[18] in_b[18] bl[0] bl_b[0] bitcell_out_18[0] dcim_bitcell
xi_bitcell_18_1 vdd gnd wl[18] in_b[18] bl[1] bl_b[1] bitcell_out_18[1] dcim_bitcell
xi_bitcell_18_2 vdd gnd wl[18] in_b[18] bl[2] bl_b[2] bitcell_out_18[2] dcim_bitcell
xi_bitcell_18_3 vdd gnd wl[18] in_b[18] bl[3] bl_b[3] bitcell_out_18[3] dcim_bitcell
xi_bitcell_19_0 vdd gnd wl[19] in_b[19] bl[0] bl_b[0] bitcell_out_19[0] dcim_bitcell
xi_bitcell_19_1 vdd gnd wl[19] in_b[19] bl[1] bl_b[1] bitcell_out_19[1] dcim_bitcell
xi_bitcell_19_2 vdd gnd wl[19] in_b[19] bl[2] bl_b[2] bitcell_out_19[2] dcim_bitcell
xi_bitcell_19_3 vdd gnd wl[19] in_b[19] bl[3] bl_b[3] bitcell_out_19[3] dcim_bitcell
xi_bitcell_20_0 vdd gnd wl[20] in_b[20] bl[0] bl_b[0] bitcell_out_20[0] dcim_bitcell
xi_bitcell_20_1 vdd gnd wl[20] in_b[20] bl[1] bl_b[1] bitcell_out_20[1] dcim_bitcell
xi_bitcell_20_2 vdd gnd wl[20] in_b[20] bl[2] bl_b[2] bitcell_out_20[2] dcim_bitcell
xi_bitcell_20_3 vdd gnd wl[20] in_b[20] bl[3] bl_b[3] bitcell_out_20[3] dcim_bitcell
xi_bitcell_21_0 vdd gnd wl[21] in_b[21] bl[0] bl_b[0] bitcell_out_21[0] dcim_bitcell
xi_bitcell_21_1 vdd gnd wl[21] in_b[21] bl[1] bl_b[1] bitcell_out_21[1] dcim_bitcell
xi_bitcell_21_2 vdd gnd wl[21] in_b[21] bl[2] bl_b[2] bitcell_out_21[2] dcim_bitcell
xi_bitcell_21_3 vdd gnd wl[21] in_b[21] bl[3] bl_b[3] bitcell_out_21[3] dcim_bitcell
xi_bitcell_22_0 vdd gnd wl[22] in_b[22] bl[0] bl_b[0] bitcell_out_22[0] dcim_bitcell
xi_bitcell_22_1 vdd gnd wl[22] in_b[22] bl[1] bl_b[1] bitcell_out_22[1] dcim_bitcell
xi_bitcell_22_2 vdd gnd wl[22] in_b[22] bl[2] bl_b[2] bitcell_out_22[2] dcim_bitcell
xi_bitcell_22_3 vdd gnd wl[22] in_b[22] bl[3] bl_b[3] bitcell_out_22[3] dcim_bitcell
xi_bitcell_23_0 vdd gnd wl[23] in_b[23] bl[0] bl_b[0] bitcell_out_23[0] dcim_bitcell
xi_bitcell_23_1 vdd gnd wl[23] in_b[23] bl[1] bl_b[1] bitcell_out_23[1] dcim_bitcell
xi_bitcell_23_2 vdd gnd wl[23] in_b[23] bl[2] bl_b[2] bitcell_out_23[2] dcim_bitcell
xi_bitcell_23_3 vdd gnd wl[23] in_b[23] bl[3] bl_b[3] bitcell_out_23[3] dcim_bitcell
xi_bitcell_24_0 vdd gnd wl[24] in_b[24] bl[0] bl_b[0] bitcell_out_24[0] dcim_bitcell
xi_bitcell_24_1 vdd gnd wl[24] in_b[24] bl[1] bl_b[1] bitcell_out_24[1] dcim_bitcell
xi_bitcell_24_2 vdd gnd wl[24] in_b[24] bl[2] bl_b[2] bitcell_out_24[2] dcim_bitcell
xi_bitcell_24_3 vdd gnd wl[24] in_b[24] bl[3] bl_b[3] bitcell_out_24[3] dcim_bitcell
xi_bitcell_25_0 vdd gnd wl[25] in_b[25] bl[0] bl_b[0] bitcell_out_25[0] dcim_bitcell
xi_bitcell_25_1 vdd gnd wl[25] in_b[25] bl[1] bl_b[1] bitcell_out_25[1] dcim_bitcell
xi_bitcell_25_2 vdd gnd wl[25] in_b[25] bl[2] bl_b[2] bitcell_out_25[2] dcim_bitcell
xi_bitcell_25_3 vdd gnd wl[25] in_b[25] bl[3] bl_b[3] bitcell_out_25[3] dcim_bitcell
xi_bitcell_26_0 vdd gnd wl[26] in_b[26] bl[0] bl_b[0] bitcell_out_26[0] dcim_bitcell
xi_bitcell_26_1 vdd gnd wl[26] in_b[26] bl[1] bl_b[1] bitcell_out_26[1] dcim_bitcell
xi_bitcell_26_2 vdd gnd wl[26] in_b[26] bl[2] bl_b[2] bitcell_out_26[2] dcim_bitcell
xi_bitcell_26_3 vdd gnd wl[26] in_b[26] bl[3] bl_b[3] bitcell_out_26[3] dcim_bitcell
xi_bitcell_27_0 vdd gnd wl[27] in_b[27] bl[0] bl_b[0] bitcell_out_27[0] dcim_bitcell
xi_bitcell_27_1 vdd gnd wl[27] in_b[27] bl[1] bl_b[1] bitcell_out_27[1] dcim_bitcell
xi_bitcell_27_2 vdd gnd wl[27] in_b[27] bl[2] bl_b[2] bitcell_out_27[2] dcim_bitcell
xi_bitcell_27_3 vdd gnd wl[27] in_b[27] bl[3] bl_b[3] bitcell_out_27[3] dcim_bitcell
xi_bitcell_28_0 vdd gnd wl[28] in_b[28] bl[0] bl_b[0] bitcell_out_28[0] dcim_bitcell
xi_bitcell_28_1 vdd gnd wl[28] in_b[28] bl[1] bl_b[1] bitcell_out_28[1] dcim_bitcell
xi_bitcell_28_2 vdd gnd wl[28] in_b[28] bl[2] bl_b[2] bitcell_out_28[2] dcim_bitcell
xi_bitcell_28_3 vdd gnd wl[28] in_b[28] bl[3] bl_b[3] bitcell_out_28[3] dcim_bitcell
xi_bitcell_29_0 vdd gnd wl[29] in_b[29] bl[0] bl_b[0] bitcell_out_29[0] dcim_bitcell
xi_bitcell_29_1 vdd gnd wl[29] in_b[29] bl[1] bl_b[1] bitcell_out_29[1] dcim_bitcell
xi_bitcell_29_2 vdd gnd wl[29] in_b[29] bl[2] bl_b[2] bitcell_out_29[2] dcim_bitcell
xi_bitcell_29_3 vdd gnd wl[29] in_b[29] bl[3] bl_b[3] bitcell_out_29[3] dcim_bitcell
xi_bitcell_30_0 vdd gnd wl[30] in_b[30] bl[0] bl_b[0] bitcell_out_30[0] dcim_bitcell
xi_bitcell_30_1 vdd gnd wl[30] in_b[30] bl[1] bl_b[1] bitcell_out_30[1] dcim_bitcell
xi_bitcell_30_2 vdd gnd wl[30] in_b[30] bl[2] bl_b[2] bitcell_out_30[2] dcim_bitcell
xi_bitcell_30_3 vdd gnd wl[30] in_b[30] bl[3] bl_b[3] bitcell_out_30[3] dcim_bitcell
xi_bitcell_31_0 vdd gnd wl[31] in_b[31] bl[0] bl_b[0] bitcell_out_31[0] dcim_bitcell
xi_bitcell_31_1 vdd gnd wl[31] in_b[31] bl[1] bl_b[1] bitcell_out_31[1] dcim_bitcell
xi_bitcell_31_2 vdd gnd wl[31] in_b[31] bl[2] bl_b[2] bitcell_out_31[2] dcim_bitcell
xi_bitcell_31_3 vdd gnd wl[31] in_b[31] bl[3] bl_b[3] bitcell_out_31[3] dcim_bitcell
xi_bitcell_32_0 vdd gnd wl[32] in_b[32] bl[0] bl_b[0] bitcell_out_32[0] dcim_bitcell
xi_bitcell_32_1 vdd gnd wl[32] in_b[32] bl[1] bl_b[1] bitcell_out_32[1] dcim_bitcell
xi_bitcell_32_2 vdd gnd wl[32] in_b[32] bl[2] bl_b[2] bitcell_out_32[2] dcim_bitcell
xi_bitcell_32_3 vdd gnd wl[32] in_b[32] bl[3] bl_b[3] bitcell_out_32[3] dcim_bitcell
xi_bitcell_33_0 vdd gnd wl[33] in_b[33] bl[0] bl_b[0] bitcell_out_33[0] dcim_bitcell
xi_bitcell_33_1 vdd gnd wl[33] in_b[33] bl[1] bl_b[1] bitcell_out_33[1] dcim_bitcell
xi_bitcell_33_2 vdd gnd wl[33] in_b[33] bl[2] bl_b[2] bitcell_out_33[2] dcim_bitcell
xi_bitcell_33_3 vdd gnd wl[33] in_b[33] bl[3] bl_b[3] bitcell_out_33[3] dcim_bitcell
xi_bitcell_34_0 vdd gnd wl[34] in_b[34] bl[0] bl_b[0] bitcell_out_34[0] dcim_bitcell
xi_bitcell_34_1 vdd gnd wl[34] in_b[34] bl[1] bl_b[1] bitcell_out_34[1] dcim_bitcell
xi_bitcell_34_2 vdd gnd wl[34] in_b[34] bl[2] bl_b[2] bitcell_out_34[2] dcim_bitcell
xi_bitcell_34_3 vdd gnd wl[34] in_b[34] bl[3] bl_b[3] bitcell_out_34[3] dcim_bitcell
xi_bitcell_35_0 vdd gnd wl[35] in_b[35] bl[0] bl_b[0] bitcell_out_35[0] dcim_bitcell
xi_bitcell_35_1 vdd gnd wl[35] in_b[35] bl[1] bl_b[1] bitcell_out_35[1] dcim_bitcell
xi_bitcell_35_2 vdd gnd wl[35] in_b[35] bl[2] bl_b[2] bitcell_out_35[2] dcim_bitcell
xi_bitcell_35_3 vdd gnd wl[35] in_b[35] bl[3] bl_b[3] bitcell_out_35[3] dcim_bitcell
xi_bitcell_36_0 vdd gnd wl[36] in_b[36] bl[0] bl_b[0] bitcell_out_36[0] dcim_bitcell
xi_bitcell_36_1 vdd gnd wl[36] in_b[36] bl[1] bl_b[1] bitcell_out_36[1] dcim_bitcell
xi_bitcell_36_2 vdd gnd wl[36] in_b[36] bl[2] bl_b[2] bitcell_out_36[2] dcim_bitcell
xi_bitcell_36_3 vdd gnd wl[36] in_b[36] bl[3] bl_b[3] bitcell_out_36[3] dcim_bitcell
xi_bitcell_37_0 vdd gnd wl[37] in_b[37] bl[0] bl_b[0] bitcell_out_37[0] dcim_bitcell
xi_bitcell_37_1 vdd gnd wl[37] in_b[37] bl[1] bl_b[1] bitcell_out_37[1] dcim_bitcell
xi_bitcell_37_2 vdd gnd wl[37] in_b[37] bl[2] bl_b[2] bitcell_out_37[2] dcim_bitcell
xi_bitcell_37_3 vdd gnd wl[37] in_b[37] bl[3] bl_b[3] bitcell_out_37[3] dcim_bitcell
xi_bitcell_38_0 vdd gnd wl[38] in_b[38] bl[0] bl_b[0] bitcell_out_38[0] dcim_bitcell
xi_bitcell_38_1 vdd gnd wl[38] in_b[38] bl[1] bl_b[1] bitcell_out_38[1] dcim_bitcell
xi_bitcell_38_2 vdd gnd wl[38] in_b[38] bl[2] bl_b[2] bitcell_out_38[2] dcim_bitcell
xi_bitcell_38_3 vdd gnd wl[38] in_b[38] bl[3] bl_b[3] bitcell_out_38[3] dcim_bitcell
xi_bitcell_39_0 vdd gnd wl[39] in_b[39] bl[0] bl_b[0] bitcell_out_39[0] dcim_bitcell
xi_bitcell_39_1 vdd gnd wl[39] in_b[39] bl[1] bl_b[1] bitcell_out_39[1] dcim_bitcell
xi_bitcell_39_2 vdd gnd wl[39] in_b[39] bl[2] bl_b[2] bitcell_out_39[2] dcim_bitcell
xi_bitcell_39_3 vdd gnd wl[39] in_b[39] bl[3] bl_b[3] bitcell_out_39[3] dcim_bitcell
xi_bitcell_40_0 vdd gnd wl[40] in_b[40] bl[0] bl_b[0] bitcell_out_40[0] dcim_bitcell
xi_bitcell_40_1 vdd gnd wl[40] in_b[40] bl[1] bl_b[1] bitcell_out_40[1] dcim_bitcell
xi_bitcell_40_2 vdd gnd wl[40] in_b[40] bl[2] bl_b[2] bitcell_out_40[2] dcim_bitcell
xi_bitcell_40_3 vdd gnd wl[40] in_b[40] bl[3] bl_b[3] bitcell_out_40[3] dcim_bitcell
xi_bitcell_41_0 vdd gnd wl[41] in_b[41] bl[0] bl_b[0] bitcell_out_41[0] dcim_bitcell
xi_bitcell_41_1 vdd gnd wl[41] in_b[41] bl[1] bl_b[1] bitcell_out_41[1] dcim_bitcell
xi_bitcell_41_2 vdd gnd wl[41] in_b[41] bl[2] bl_b[2] bitcell_out_41[2] dcim_bitcell
xi_bitcell_41_3 vdd gnd wl[41] in_b[41] bl[3] bl_b[3] bitcell_out_41[3] dcim_bitcell
xi_bitcell_42_0 vdd gnd wl[42] in_b[42] bl[0] bl_b[0] bitcell_out_42[0] dcim_bitcell
xi_bitcell_42_1 vdd gnd wl[42] in_b[42] bl[1] bl_b[1] bitcell_out_42[1] dcim_bitcell
xi_bitcell_42_2 vdd gnd wl[42] in_b[42] bl[2] bl_b[2] bitcell_out_42[2] dcim_bitcell
xi_bitcell_42_3 vdd gnd wl[42] in_b[42] bl[3] bl_b[3] bitcell_out_42[3] dcim_bitcell
xi_bitcell_43_0 vdd gnd wl[43] in_b[43] bl[0] bl_b[0] bitcell_out_43[0] dcim_bitcell
xi_bitcell_43_1 vdd gnd wl[43] in_b[43] bl[1] bl_b[1] bitcell_out_43[1] dcim_bitcell
xi_bitcell_43_2 vdd gnd wl[43] in_b[43] bl[2] bl_b[2] bitcell_out_43[2] dcim_bitcell
xi_bitcell_43_3 vdd gnd wl[43] in_b[43] bl[3] bl_b[3] bitcell_out_43[3] dcim_bitcell
xi_bitcell_44_0 vdd gnd wl[44] in_b[44] bl[0] bl_b[0] bitcell_out_44[0] dcim_bitcell
xi_bitcell_44_1 vdd gnd wl[44] in_b[44] bl[1] bl_b[1] bitcell_out_44[1] dcim_bitcell
xi_bitcell_44_2 vdd gnd wl[44] in_b[44] bl[2] bl_b[2] bitcell_out_44[2] dcim_bitcell
xi_bitcell_44_3 vdd gnd wl[44] in_b[44] bl[3] bl_b[3] bitcell_out_44[3] dcim_bitcell
xi_bitcell_45_0 vdd gnd wl[45] in_b[45] bl[0] bl_b[0] bitcell_out_45[0] dcim_bitcell
xi_bitcell_45_1 vdd gnd wl[45] in_b[45] bl[1] bl_b[1] bitcell_out_45[1] dcim_bitcell
xi_bitcell_45_2 vdd gnd wl[45] in_b[45] bl[2] bl_b[2] bitcell_out_45[2] dcim_bitcell
xi_bitcell_45_3 vdd gnd wl[45] in_b[45] bl[3] bl_b[3] bitcell_out_45[3] dcim_bitcell
xi_bitcell_46_0 vdd gnd wl[46] in_b[46] bl[0] bl_b[0] bitcell_out_46[0] dcim_bitcell
xi_bitcell_46_1 vdd gnd wl[46] in_b[46] bl[1] bl_b[1] bitcell_out_46[1] dcim_bitcell
xi_bitcell_46_2 vdd gnd wl[46] in_b[46] bl[2] bl_b[2] bitcell_out_46[2] dcim_bitcell
xi_bitcell_46_3 vdd gnd wl[46] in_b[46] bl[3] bl_b[3] bitcell_out_46[3] dcim_bitcell
xi_bitcell_47_0 vdd gnd wl[47] in_b[47] bl[0] bl_b[0] bitcell_out_47[0] dcim_bitcell
xi_bitcell_47_1 vdd gnd wl[47] in_b[47] bl[1] bl_b[1] bitcell_out_47[1] dcim_bitcell
xi_bitcell_47_2 vdd gnd wl[47] in_b[47] bl[2] bl_b[2] bitcell_out_47[2] dcim_bitcell
xi_bitcell_47_3 vdd gnd wl[47] in_b[47] bl[3] bl_b[3] bitcell_out_47[3] dcim_bitcell
xi_bitcell_48_0 vdd gnd wl[48] in_b[48] bl[0] bl_b[0] bitcell_out_48[0] dcim_bitcell
xi_bitcell_48_1 vdd gnd wl[48] in_b[48] bl[1] bl_b[1] bitcell_out_48[1] dcim_bitcell
xi_bitcell_48_2 vdd gnd wl[48] in_b[48] bl[2] bl_b[2] bitcell_out_48[2] dcim_bitcell
xi_bitcell_48_3 vdd gnd wl[48] in_b[48] bl[3] bl_b[3] bitcell_out_48[3] dcim_bitcell
xi_bitcell_49_0 vdd gnd wl[49] in_b[49] bl[0] bl_b[0] bitcell_out_49[0] dcim_bitcell
xi_bitcell_49_1 vdd gnd wl[49] in_b[49] bl[1] bl_b[1] bitcell_out_49[1] dcim_bitcell
xi_bitcell_49_2 vdd gnd wl[49] in_b[49] bl[2] bl_b[2] bitcell_out_49[2] dcim_bitcell
xi_bitcell_49_3 vdd gnd wl[49] in_b[49] bl[3] bl_b[3] bitcell_out_49[3] dcim_bitcell
xi_bitcell_50_0 vdd gnd wl[50] in_b[50] bl[0] bl_b[0] bitcell_out_50[0] dcim_bitcell
xi_bitcell_50_1 vdd gnd wl[50] in_b[50] bl[1] bl_b[1] bitcell_out_50[1] dcim_bitcell
xi_bitcell_50_2 vdd gnd wl[50] in_b[50] bl[2] bl_b[2] bitcell_out_50[2] dcim_bitcell
xi_bitcell_50_3 vdd gnd wl[50] in_b[50] bl[3] bl_b[3] bitcell_out_50[3] dcim_bitcell
xi_bitcell_51_0 vdd gnd wl[51] in_b[51] bl[0] bl_b[0] bitcell_out_51[0] dcim_bitcell
xi_bitcell_51_1 vdd gnd wl[51] in_b[51] bl[1] bl_b[1] bitcell_out_51[1] dcim_bitcell
xi_bitcell_51_2 vdd gnd wl[51] in_b[51] bl[2] bl_b[2] bitcell_out_51[2] dcim_bitcell
xi_bitcell_51_3 vdd gnd wl[51] in_b[51] bl[3] bl_b[3] bitcell_out_51[3] dcim_bitcell
xi_bitcell_52_0 vdd gnd wl[52] in_b[52] bl[0] bl_b[0] bitcell_out_52[0] dcim_bitcell
xi_bitcell_52_1 vdd gnd wl[52] in_b[52] bl[1] bl_b[1] bitcell_out_52[1] dcim_bitcell
xi_bitcell_52_2 vdd gnd wl[52] in_b[52] bl[2] bl_b[2] bitcell_out_52[2] dcim_bitcell
xi_bitcell_52_3 vdd gnd wl[52] in_b[52] bl[3] bl_b[3] bitcell_out_52[3] dcim_bitcell
xi_bitcell_53_0 vdd gnd wl[53] in_b[53] bl[0] bl_b[0] bitcell_out_53[0] dcim_bitcell
xi_bitcell_53_1 vdd gnd wl[53] in_b[53] bl[1] bl_b[1] bitcell_out_53[1] dcim_bitcell
xi_bitcell_53_2 vdd gnd wl[53] in_b[53] bl[2] bl_b[2] bitcell_out_53[2] dcim_bitcell
xi_bitcell_53_3 vdd gnd wl[53] in_b[53] bl[3] bl_b[3] bitcell_out_53[3] dcim_bitcell
xi_bitcell_54_0 vdd gnd wl[54] in_b[54] bl[0] bl_b[0] bitcell_out_54[0] dcim_bitcell
xi_bitcell_54_1 vdd gnd wl[54] in_b[54] bl[1] bl_b[1] bitcell_out_54[1] dcim_bitcell
xi_bitcell_54_2 vdd gnd wl[54] in_b[54] bl[2] bl_b[2] bitcell_out_54[2] dcim_bitcell
xi_bitcell_54_3 vdd gnd wl[54] in_b[54] bl[3] bl_b[3] bitcell_out_54[3] dcim_bitcell
xi_bitcell_55_0 vdd gnd wl[55] in_b[55] bl[0] bl_b[0] bitcell_out_55[0] dcim_bitcell
xi_bitcell_55_1 vdd gnd wl[55] in_b[55] bl[1] bl_b[1] bitcell_out_55[1] dcim_bitcell
xi_bitcell_55_2 vdd gnd wl[55] in_b[55] bl[2] bl_b[2] bitcell_out_55[2] dcim_bitcell
xi_bitcell_55_3 vdd gnd wl[55] in_b[55] bl[3] bl_b[3] bitcell_out_55[3] dcim_bitcell
xi_bitcell_56_0 vdd gnd wl[56] in_b[56] bl[0] bl_b[0] bitcell_out_56[0] dcim_bitcell
xi_bitcell_56_1 vdd gnd wl[56] in_b[56] bl[1] bl_b[1] bitcell_out_56[1] dcim_bitcell
xi_bitcell_56_2 vdd gnd wl[56] in_b[56] bl[2] bl_b[2] bitcell_out_56[2] dcim_bitcell
xi_bitcell_56_3 vdd gnd wl[56] in_b[56] bl[3] bl_b[3] bitcell_out_56[3] dcim_bitcell
xi_bitcell_57_0 vdd gnd wl[57] in_b[57] bl[0] bl_b[0] bitcell_out_57[0] dcim_bitcell
xi_bitcell_57_1 vdd gnd wl[57] in_b[57] bl[1] bl_b[1] bitcell_out_57[1] dcim_bitcell
xi_bitcell_57_2 vdd gnd wl[57] in_b[57] bl[2] bl_b[2] bitcell_out_57[2] dcim_bitcell
xi_bitcell_57_3 vdd gnd wl[57] in_b[57] bl[3] bl_b[3] bitcell_out_57[3] dcim_bitcell
xi_bitcell_58_0 vdd gnd wl[58] in_b[58] bl[0] bl_b[0] bitcell_out_58[0] dcim_bitcell
xi_bitcell_58_1 vdd gnd wl[58] in_b[58] bl[1] bl_b[1] bitcell_out_58[1] dcim_bitcell
xi_bitcell_58_2 vdd gnd wl[58] in_b[58] bl[2] bl_b[2] bitcell_out_58[2] dcim_bitcell
xi_bitcell_58_3 vdd gnd wl[58] in_b[58] bl[3] bl_b[3] bitcell_out_58[3] dcim_bitcell
xi_bitcell_59_0 vdd gnd wl[59] in_b[59] bl[0] bl_b[0] bitcell_out_59[0] dcim_bitcell
xi_bitcell_59_1 vdd gnd wl[59] in_b[59] bl[1] bl_b[1] bitcell_out_59[1] dcim_bitcell
xi_bitcell_59_2 vdd gnd wl[59] in_b[59] bl[2] bl_b[2] bitcell_out_59[2] dcim_bitcell
xi_bitcell_59_3 vdd gnd wl[59] in_b[59] bl[3] bl_b[3] bitcell_out_59[3] dcim_bitcell
xi_bitcell_60_0 vdd gnd wl[60] in_b[60] bl[0] bl_b[0] bitcell_out_60[0] dcim_bitcell
xi_bitcell_60_1 vdd gnd wl[60] in_b[60] bl[1] bl_b[1] bitcell_out_60[1] dcim_bitcell
xi_bitcell_60_2 vdd gnd wl[60] in_b[60] bl[2] bl_b[2] bitcell_out_60[2] dcim_bitcell
xi_bitcell_60_3 vdd gnd wl[60] in_b[60] bl[3] bl_b[3] bitcell_out_60[3] dcim_bitcell
xi_bitcell_61_0 vdd gnd wl[61] in_b[61] bl[0] bl_b[0] bitcell_out_61[0] dcim_bitcell
xi_bitcell_61_1 vdd gnd wl[61] in_b[61] bl[1] bl_b[1] bitcell_out_61[1] dcim_bitcell
xi_bitcell_61_2 vdd gnd wl[61] in_b[61] bl[2] bl_b[2] bitcell_out_61[2] dcim_bitcell
xi_bitcell_61_3 vdd gnd wl[61] in_b[61] bl[3] bl_b[3] bitcell_out_61[3] dcim_bitcell
xi_bitcell_62_0 vdd gnd wl[62] in_b[62] bl[0] bl_b[0] bitcell_out_62[0] dcim_bitcell
xi_bitcell_62_1 vdd gnd wl[62] in_b[62] bl[1] bl_b[1] bitcell_out_62[1] dcim_bitcell
xi_bitcell_62_2 vdd gnd wl[62] in_b[62] bl[2] bl_b[2] bitcell_out_62[2] dcim_bitcell
xi_bitcell_62_3 vdd gnd wl[62] in_b[62] bl[3] bl_b[3] bitcell_out_62[3] dcim_bitcell
xi_bitcell_63_0 vdd gnd wl[63] in_b[63] bl[0] bl_b[0] bitcell_out_63[0] dcim_bitcell
xi_bitcell_63_1 vdd gnd wl[63] in_b[63] bl[1] bl_b[1] bitcell_out_63[1] dcim_bitcell
xi_bitcell_63_2 vdd gnd wl[63] in_b[63] bl[2] bl_b[2] bitcell_out_63[2] dcim_bitcell
xi_bitcell_63_3 vdd gnd wl[63] in_b[63] bl[3] bl_b[3] bitcell_out_63[3] dcim_bitcell
.ends sram_64x4
** End of subcircuit definition.

** Cell name: sram_rw_4bit
.subckt sram_rw_4bit vdd gnd bl[0] bl[1] bl[2] bl[3] bl_b[0] bl_b[1] bl_b[2] bl_b[3] pe ysw ysr spe se din[0] din[1] din[2] din[3] dout[0] dout[1] dout[2] dout[3] 
xi_rw_0 vdd gnd bl[0] bl_b[0] pe ysw ysr spe se din[0] dout[0] sram_rw
xi_rw_1 vdd gnd bl[1] bl_b[1] pe ysw ysr spe se din[1] dout[1] sram_rw
xi_rw_2 vdd gnd bl[2] bl_b[2] pe ysw ysr spe se din[2] dout[2] sram_rw
xi_rw_3 vdd gnd bl[3] bl_b[3] pe ysw ysr spe se din[3] dout[3] sram_rw
.ends sram_rw_4bit
** End of subcircuit definition.

** Cell name: sram_64x4_with_rw